# generated using pymatgen
data_Cu(HO)2
_symmetry_space_group_name_H-M   'P 1'
_cell_length_a   2.95511933
_cell_length_b   5.35840585
_cell_length_c   24.83531800
_cell_angle_alpha   90.00000000
_cell_angle_beta   90.00000000
_cell_angle_gamma   90.00000000
_symmetry_Int_Tables_number   1
_chemical_formula_structural   Cu(HO)2
_chemical_formula_sum   'Cu2 H4 O4'
_cell_volume   393.26052284
_cell_formula_units_Z   2
loop_
 _symmetry_equiv_pos_site_id
 _symmetry_equiv_pos_as_xyz
  1  'x, y, z'
loop_
 _atom_site_type_symbol
 _atom_site_label
 _atom_site_symmetry_multiplicity
 _atom_site_fract_x
 _atom_site_fract_y
 _atom_site_fract_z
 _atom_site_occupancy
  Cu  Cu1  1  0.000000  0.251143  0.530436  1
  Cu  Cu2  1  0.500000  0.751143  0.469564  1
  H  H3  1  0.500000  0.363639  0.607435  1
  H  H4  1  0.000000  0.863639  0.392565  1
  H  H5  1  0.500000  0.284220  0.445907  1
  H  H6  1  0.000000  0.784220  0.554093  1
  O  O7  1  0.500000  0.223041  0.582453  1
  O  O8  1  0.000000  0.723041  0.417547  1
  O  O9  1  0.500000  0.181258  0.478527  1
  O  O10  1  0.000000  0.681258  0.521473  1
