# generated using pymatgen
data_ZrSe2
_symmetry_space_group_name_H-M   'P 1'
_cell_length_a   3.80757587
_cell_length_b   3.80757486
_cell_length_c   23.18514800
_cell_angle_alpha   90.00000000
_cell_angle_beta   90.00000000
_cell_angle_gamma   119.99999997
_symmetry_Int_Tables_number   1
_chemical_formula_structural   ZrSe2
_chemical_formula_sum   'Zr1 Se2'
_cell_volume   291.09686035
_cell_formula_units_Z   1
loop_
 _symmetry_equiv_pos_site_id
 _symmetry_equiv_pos_as_xyz
  1  'x, y, z'
loop_
 _atom_site_type_symbol
 _atom_site_label
 _atom_site_symmetry_multiplicity
 _atom_site_fract_x
 _atom_site_fract_y
 _atom_site_fract_z
 _atom_site_occupancy
  Zr  Zr1  1  0.000000  0.000000  0.500000  1
  Se  Se2  1  0.666667  0.333333  0.568446  1
  Se  Se3  1  0.333333  0.666667  0.431554  1
