# generated using pymatgen
data_YGaI
_symmetry_space_group_name_H-M   'P 1'
_cell_length_a   4.18727493
_cell_length_b   4.18727422
_cell_length_c   28.07690925
_cell_angle_alpha   90.00000000
_cell_angle_beta   90.00000000
_cell_angle_gamma   119.99999777
_symmetry_Int_Tables_number   1
_chemical_formula_structural   YGaI
_chemical_formula_sum   'Y2 Ga2 I2'
_cell_volume   426.32698234
_cell_formula_units_Z   2
loop_
 _symmetry_equiv_pos_site_id
 _symmetry_equiv_pos_as_xyz
  1  'x, y, z'
loop_
 _atom_site_type_symbol
 _atom_site_label
 _atom_site_symmetry_multiplicity
 _atom_site_fract_x
 _atom_site_fract_y
 _atom_site_fract_z
 _atom_site_occupancy
  Y  Y1  1  -0.000000  -0.000000  0.572009  1
  Y  Y2  1  -0.000000  -0.000000  0.427991  1
  Ga  Ga3  1  0.333333  0.666667  0.512821  1
  Ga  Ga4  1  0.666667  0.333333  0.487179  1
  I  I5  1  0.666667  0.333333  0.643563  1
  I  I6  1  0.333333  0.666667  0.356437  1
