# generated using pymatgen
data_HfSe3
_symmetry_space_group_name_H-M   'P 1'
_cell_length_a   3.73715364
_cell_length_b   5.44428958
_cell_length_c   26.19241600
_cell_angle_alpha   90.00000000
_cell_angle_beta   90.00000000
_cell_angle_gamma   90.00000000
_symmetry_Int_Tables_number   1
_chemical_formula_structural   HfSe3
_chemical_formula_sum   'Hf2 Se6'
_cell_volume   532.91473630
_cell_formula_units_Z   2
loop_
 _symmetry_equiv_pos_site_id
 _symmetry_equiv_pos_as_xyz
  1  'x, y, z'
loop_
 _atom_site_type_symbol
 _atom_site_label
 _atom_site_symmetry_multiplicity
 _atom_site_fract_x
 _atom_site_fract_y
 _atom_site_fract_z
 _atom_site_occupancy
  Hf  Hf1  1  0.250000  0.653033  0.556450  1
  Hf  Hf2  1  0.750000  0.153054  0.443549  1
  Se  Se3  1  0.250000  0.933458  0.381835  1
  Se  Se4  1  0.750000  0.872629  0.618165  1
  Se  Se5  1  0.750000  0.653031  0.480873  1
  Se  Se6  1  0.250000  0.153055  0.519127  1
  Se  Se7  1  0.750000  0.433243  0.618089  1
  Se  Se8  1  0.250000  0.372843  0.381911  1
