# generated using pymatgen
data_Li2AgSn2
_symmetry_space_group_name_H-M   'P 1'
_cell_length_a   4.43202648
_cell_length_b   4.43202648
_cell_length_c   23.18837300
_cell_angle_alpha   90.00000000
_cell_angle_beta   90.00000000
_cell_angle_gamma   90.00000000
_symmetry_Int_Tables_number   1
_chemical_formula_structural   Li2AgSn2
_chemical_formula_sum   'Li2 Ag1 Sn2'
_cell_volume   455.48593477
_cell_formula_units_Z   1
loop_
 _symmetry_equiv_pos_site_id
 _symmetry_equiv_pos_as_xyz
  1  'x, y, z'
loop_
 _atom_site_type_symbol
 _atom_site_label
 _atom_site_symmetry_multiplicity
 _atom_site_fract_x
 _atom_site_fract_y
 _atom_site_fract_z
 _atom_site_occupancy
  Li  Li1  1  0.500000  0.000000  0.427151  1
  Li  Li2  1  0.000000  0.500000  0.572849  1
  Ag  Ag3  1  0.000000  0.000000  0.500000  1
  Sn  Sn4  1  0.000000  0.500000  0.434445  1
  Sn  Sn5  1  0.500000  0.000000  0.565555  1
