# generated using pymatgen
data_Si2O
_symmetry_space_group_name_H-M   'P 1'
_cell_length_a   2.70375401
_cell_length_b   3.87858473
_cell_length_c   22.80694400
_cell_angle_alpha   90.00000000
_cell_angle_beta   90.00000000
_cell_angle_gamma   110.39860150
_symmetry_Int_Tables_number   1
_chemical_formula_structural   Si2O
_chemical_formula_sum   'Si2 O1'
_cell_volume   224.17220827
_cell_formula_units_Z   1
loop_
 _symmetry_equiv_pos_site_id
 _symmetry_equiv_pos_as_xyz
  1  'x, y, z'
loop_
 _atom_site_type_symbol
 _atom_site_label
 _atom_site_symmetry_multiplicity
 _atom_site_fract_x
 _atom_site_fract_y
 _atom_site_fract_z
 _atom_site_occupancy
  Si  Si1  1  0.850002  0.700003  0.497733  1
  Si  Si2  1  0.579398  0.158795  0.436908  1
  O  O3  1  0.815237  0.630472  0.565359  1
