# generated using pymatgen
data_Li2CuP
_symmetry_space_group_name_H-M   'P 1'
_cell_length_a   3.95935945
_cell_length_b   3.95935920
_cell_length_c   22.32704900
_cell_angle_alpha   90.00000000
_cell_angle_beta   90.00000000
_cell_angle_gamma   119.99999384
_symmetry_Int_Tables_number   1
_chemical_formula_structural   Li2CuP
_chemical_formula_sum   'Li2 Cu1 P1'
_cell_volume   303.11806383
_cell_formula_units_Z   1
loop_
 _symmetry_equiv_pos_site_id
 _symmetry_equiv_pos_as_xyz
  1  'x, y, z'
loop_
 _atom_site_type_symbol
 _atom_site_label
 _atom_site_symmetry_multiplicity
 _atom_site_fract_x
 _atom_site_fract_y
 _atom_site_fract_z
 _atom_site_occupancy
  Li  Li1  1  0.333333  0.666667  0.442570  1
  Li  Li2  1  0.333333  0.666667  0.557459  1
  Cu  Cu3  1  0.000000  0.000000  0.499955  1
  P  P4  1  0.666667  0.333333  0.500015  1
