# generated using pymatgen
data_BaSn2
_symmetry_space_group_name_H-M   'P 1'
_cell_length_a   3.43926280
_cell_length_b   3.43926231
_cell_length_c   24.72655720
_cell_angle_alpha   90.00000000
_cell_angle_beta   90.00000000
_cell_angle_gamma   119.99999531
_symmetry_Int_Tables_number   1
_chemical_formula_structural   BaSn2
_chemical_formula_sum   'Ba1 Sn2'
_cell_volume   253.29403727
_cell_formula_units_Z   1
loop_
 _symmetry_equiv_pos_site_id
 _symmetry_equiv_pos_as_xyz
  1  'x, y, z'
loop_
 _atom_site_type_symbol
 _atom_site_label
 _atom_site_symmetry_multiplicity
 _atom_site_fract_x
 _atom_site_fract_y
 _atom_site_fract_z
 _atom_site_occupancy
  Ba  Ba1  1  -0.000000  0.000000  0.500000  1
  Sn  Sn2  1  0.666667  0.333333  0.372291  1
  Sn  Sn3  1  0.333333  0.666667  0.627709  1
