# generated using pymatgen
data_BaCu
_symmetry_space_group_name_H-M   'P 1'
_cell_length_a   4.38325526
_cell_length_b   4.38325506
_cell_length_c   24.53210634
_cell_angle_alpha   90.00000000
_cell_angle_beta   90.00000000
_cell_angle_gamma   120.00000148
_symmetry_Int_Tables_number   1
_chemical_formula_structural   BaCu
_chemical_formula_sum   'Ba2 Cu2'
_cell_volume   408.18681251
_cell_formula_units_Z   2
loop_
 _symmetry_equiv_pos_site_id
 _symmetry_equiv_pos_as_xyz
  1  'x, y, z'
loop_
 _atom_site_type_symbol
 _atom_site_label
 _atom_site_symmetry_multiplicity
 _atom_site_fract_x
 _atom_site_fract_y
 _atom_site_fract_z
 _atom_site_occupancy
  Ba  Ba1  1  0.000000  -0.000000  0.587637  1
  Ba  Ba2  1  0.000000  -0.000000  0.412363  1
  Cu  Cu3  1  0.666667  0.333333  0.500000  1
  Cu  Cu4  1  0.333333  0.666667  0.500000  1
