# generated using pymatgen
data_YSb2
_symmetry_space_group_name_H-M   'P 1'
_cell_length_a   3.37050476
_cell_length_b   3.49535125
_cell_length_c   24.90426100
_cell_angle_alpha   90.00000000
_cell_angle_beta   90.00000000
_cell_angle_gamma   118.82533208
_symmetry_Int_Tables_number   1
_chemical_formula_structural   YSb2
_chemical_formula_sum   'Y1 Sb2'
_cell_volume   257.04545850
_cell_formula_units_Z   1
loop_
 _symmetry_equiv_pos_site_id
 _symmetry_equiv_pos_as_xyz
  1  'x, y, z'
loop_
 _atom_site_type_symbol
 _atom_site_label
 _atom_site_symmetry_multiplicity
 _atom_site_fract_x
 _atom_site_fract_y
 _atom_site_fract_z
 _atom_site_occupancy
  Y  Y1  1  0.000000  0.000000  0.500000  1
  Sb  Sb2  1  0.000000  0.500000  0.395973  1
  Sb  Sb3  1  0.500000  0.500000  0.604027  1
