# generated using pymatgen
data_Hg3As
_symmetry_space_group_name_H-M   'P 1'
_cell_length_a   5.90496589
_cell_length_b   5.90496624
_cell_length_c   20.00000000
_cell_angle_alpha   90.00000000
_cell_angle_beta   90.00000000
_cell_angle_gamma   120.00000303
_symmetry_Int_Tables_number   1
_chemical_formula_structural   Hg3As
_chemical_formula_sum   'Hg3 As1'
_cell_volume   603.94226955
_cell_formula_units_Z   1
loop_
 _symmetry_equiv_pos_site_id
 _symmetry_equiv_pos_as_xyz
  1  'x, y, z'
loop_
 _atom_site_type_symbol
 _atom_site_label
 _atom_site_symmetry_multiplicity
 _atom_site_fract_x
 _atom_site_fract_y
 _atom_site_fract_z
 _atom_site_occupancy
  Hg  Hg1  1  0.499879  0.500121  0.500000  1
  Hg  Hg2  1  0.000242  0.500121  0.500000  1
  Hg  Hg3  1  0.499879  0.999758  0.500000  1
  As  As4  1  0.000000  0.000000  0.500000  1
