# generated using pymatgen
data_ErTe3
_symmetry_space_group_name_H-M   'P 1'
_cell_length_a   4.01159619
_cell_length_b   4.60028372
_cell_length_c   30.42999700
_cell_angle_alpha   90.00000000
_cell_angle_beta   90.00000000
_cell_angle_gamma   90.00000000
_symmetry_Int_Tables_number   1
_chemical_formula_structural   ErTe3
_chemical_formula_sum   'Er2 Te6'
_cell_volume   561.56979064
_cell_formula_units_Z   2
loop_
 _symmetry_equiv_pos_site_id
 _symmetry_equiv_pos_as_xyz
  1  'x, y, z'
loop_
 _atom_site_type_symbol
 _atom_site_label
 _atom_site_symmetry_multiplicity
 _atom_site_fract_x
 _atom_site_fract_y
 _atom_site_fract_z
 _atom_site_occupancy
  Er  Er1  1  -0.000000  0.250000  0.546586  1
  Er  Er2  1  -0.000000  0.750000  0.453414  1
  Te  Te3  1  0.500000  0.250000  0.329331  1
  Te  Te4  1  0.500000  0.250000  0.452627  1
  Te  Te5  1  0.000000  0.250000  0.649748  1
  Te  Te6  1  0.500000  0.750000  0.547373  1
  Te  Te7  1  -0.000000  0.750000  0.350252  1
  Te  Te8  1  0.500000  0.750000  0.670669  1
