# generated using pymatgen
data_MgBi
_symmetry_space_group_name_H-M   'P 1'
_cell_length_a   3.42306783
_cell_length_b   5.45123872
_cell_length_c   27.11141000
_cell_angle_alpha   90.00000000
_cell_angle_beta   90.00000000
_cell_angle_gamma   90.00000000
_symmetry_Int_Tables_number   1
_chemical_formula_structural   MgBi
_chemical_formula_sum   'Mg3 Bi3'
_cell_volume   505.89782333
_cell_formula_units_Z   3
loop_
 _symmetry_equiv_pos_site_id
 _symmetry_equiv_pos_as_xyz
  1  'x, y, z'
loop_
 _atom_site_type_symbol
 _atom_site_label
 _atom_site_symmetry_multiplicity
 _atom_site_fract_x
 _atom_site_fract_y
 _atom_site_fract_z
 _atom_site_occupancy
  Mg  Mg1  1  0.500000  -0.000000  0.466470  1
  Mg  Mg2  1  0.500000  0.500000  0.530901  1
  Mg  Mg3  1  0.000000  0.500000  0.430415  1
  Bi  Bi4  1  0.000000  -0.000000  0.566468  1
  Bi  Bi5  1  -0.000000  0.000000  0.376089  1
  Bi  Bi6  1  -0.000000  0.500000  0.629659  1
