# generated using pymatgen
data_Mg2As
_symmetry_space_group_name_H-M   'P 1'
_cell_length_a   4.22280173
_cell_length_b   4.62573850
_cell_length_c   26.36452700
_cell_angle_alpha   90.00000000
_cell_angle_beta   90.00000000
_cell_angle_gamma   90.00000000
_symmetry_Int_Tables_number   1
_chemical_formula_structural   Mg2As
_chemical_formula_sum   'Mg4 As2'
_cell_volume   514.99350610
_cell_formula_units_Z   2
loop_
 _symmetry_equiv_pos_site_id
 _symmetry_equiv_pos_as_xyz
  1  'x, y, z'
loop_
 _atom_site_type_symbol
 _atom_site_label
 _atom_site_symmetry_multiplicity
 _atom_site_fract_x
 _atom_site_fract_y
 _atom_site_fract_z
 _atom_site_occupancy
  Mg  Mg1  1  0.500000  0.500000  0.379501  1
  Mg  Mg2  1  0.500000  0.500000  0.508633  1
  Mg  Mg3  1  0.000000  0.000000  0.491367  1
  Mg  Mg4  1  0.000000  0.000000  0.620499  1
  As  As5  1  -0.000000  0.500000  0.442823  1
  As  As6  1  0.500000  -0.000000  0.557177  1
