# generated using pymatgen
data_SbF5
_symmetry_space_group_name_H-M   'P 1'
_cell_length_a   3.72464536
_cell_length_b   4.53447245
_cell_length_c   23.53332752
_cell_angle_alpha   90.00000000
_cell_angle_beta   90.00000000
_cell_angle_gamma   90.00000000
_symmetry_Int_Tables_number   1
_chemical_formula_structural   SbF5
_chemical_formula_sum   'Sb1 F5'
_cell_volume   397.46147016
_cell_formula_units_Z   1
loop_
 _symmetry_equiv_pos_site_id
 _symmetry_equiv_pos_as_xyz
  1  'x, y, z'
loop_
 _atom_site_type_symbol
 _atom_site_label
 _atom_site_symmetry_multiplicity
 _atom_site_fract_x
 _atom_site_fract_y
 _atom_site_fract_z
 _atom_site_occupancy
  Sb  Sb1  1  0.000000  0.500000  0.500000  1
  F  F2  1  0.500000  0.735326  0.500000  1
  F  F3  1  0.500000  0.264674  0.500000  1
  F  F4  1  -0.000000  0.500000  0.579537  1
  F  F5  1  -0.000000  0.500000  0.420463  1
  F  F6  1  -0.000000  -0.000000  0.500000  1
