# generated using pymatgen
data_PrS3
_symmetry_space_group_name_H-M   'P 1'
_cell_length_a   5.61749447
_cell_length_b   5.61749444
_cell_length_c   19.93380323
_cell_angle_alpha   90.00000000
_cell_angle_beta   90.00000000
_cell_angle_gamma   120.00000023
_symmetry_Int_Tables_number   1
_chemical_formula_structural   PrS3
_chemical_formula_sum   'Pr1 S3'
_cell_volume   544.76111800
_cell_formula_units_Z   1
loop_
 _symmetry_equiv_pos_site_id
 _symmetry_equiv_pos_as_xyz
  1  'x, y, z'
loop_
 _atom_site_type_symbol
 _atom_site_label
 _atom_site_symmetry_multiplicity
 _atom_site_fract_x
 _atom_site_fract_y
 _atom_site_fract_z
 _atom_site_occupancy
  Pr  Pr1  1  0.000000  -0.000000  0.500000  1
  S  S2  1  0.500038  0.499962  0.500000  1
  S  S3  1  0.999923  0.499962  0.500000  1
  S  S4  1  0.500038  0.000077  0.500000  1
