# generated using pymatgen
data_NaTi2HO5
_symmetry_space_group_name_H-M   'P 1'
_cell_length_a   3.04535958
_cell_length_b   3.66313777
_cell_length_c   28.27537600
_cell_angle_alpha   90.00000000
_cell_angle_beta   90.00000000
_cell_angle_gamma   90.05952199
_symmetry_Int_Tables_number   1
_chemical_formula_structural   NaTi2HO5
_chemical_formula_sum   'Na1 Ti2 H1 O5'
_cell_volume   315.42781450
_cell_formula_units_Z   1
loop_
 _symmetry_equiv_pos_site_id
 _symmetry_equiv_pos_as_xyz
  1  'x, y, z'
loop_
 _atom_site_type_symbol
 _atom_site_label
 _atom_site_symmetry_multiplicity
 _atom_site_fract_x
 _atom_site_fract_y
 _atom_site_fract_z
 _atom_site_occupancy
  Na  Na1  1  0.096926  0.195912  0.394003  1
  Ti  Ti2  1  0.695670  0.191655  0.523002  1
  Ti  Ti3  1  0.193587  0.691732  0.604128  1
  H  H4  1  0.697930  0.689186  0.347112  1
  O  O5  1  0.195096  0.192027  0.485751  1
  O  O6  1  0.695590  0.691697  0.546047  1
  O  O7  1  0.576108  0.695820  0.379055  1
  O  O8  1  0.693887  0.691895  0.640419  1
  O  O9  1  0.194788  0.191727  0.580482  1
