# generated using pymatgen
data_ThCo5
_symmetry_space_group_name_H-M   'P 1'
_cell_length_a   6.83496386
_cell_length_b   6.86477267
_cell_length_c   20.00000000
_cell_angle_alpha   90.00000000
_cell_angle_beta   90.00000000
_cell_angle_gamma   119.85645742
_symmetry_Int_Tables_number   1
_chemical_formula_structural   ThCo5
_chemical_formula_sum   'Th1 Co5'
_cell_volume   813.85937625
_cell_formula_units_Z   1
loop_
 _symmetry_equiv_pos_site_id
 _symmetry_equiv_pos_as_xyz
  1  'x, y, z'
loop_
 _atom_site_type_symbol
 _atom_site_label
 _atom_site_symmetry_multiplicity
 _atom_site_fract_x
 _atom_site_fract_y
 _atom_site_fract_z
 _atom_site_occupancy
  Th  Th1  1  -0.000000  0.000000  0.500000  1
  Co  Co2  1  0.333872  0.667744  0.500000  1
  Co  Co3  1  0.666128  0.332256  0.500000  1
  Co  Co4  1  0.500000  0.500000  0.500000  1
  Co  Co5  1  -0.000000  0.500000  0.500000  1
  Co  Co6  1  0.500000  0.000000  0.500000  1
