# generated using pymatgen
data_ZrSiTe
_symmetry_space_group_name_H-M   'P 1'
_cell_length_a   3.70417876
_cell_length_b   3.70417876
_cell_length_c   26.98147000
_cell_angle_alpha   90.00000000
_cell_angle_beta   90.00000000
_cell_angle_gamma   90.00000000
_symmetry_Int_Tables_number   1
_chemical_formula_structural   ZrSiTe
_chemical_formula_sum   'Zr2 Si2 Te2'
_cell_volume   370.21113870
_cell_formula_units_Z   2
loop_
 _symmetry_equiv_pos_site_id
 _symmetry_equiv_pos_as_xyz
  1  'x, y, z'
loop_
 _atom_site_type_symbol
 _atom_site_label
 _atom_site_symmetry_multiplicity
 _atom_site_fract_x
 _atom_site_fract_y
 _atom_site_fract_z
 _atom_site_occupancy
  Zr  Zr1  1  0.500000  0.000000  0.579456  1
  Zr  Zr2  1  0.000000  0.500000  0.420544  1
  Si  Si3  1  0.500000  0.500000  0.500000  1
  Si  Si4  1  -0.000000  -0.000000  0.500000  1
  Te  Te5  1  -0.000000  0.500000  0.630471  1
  Te  Te6  1  0.500000  0.000000  0.369529  1
