# generated using pymatgen
data_I
_symmetry_space_group_name_H-M   'P 1'
_cell_length_a   3.24401128
_cell_length_b   3.24401130
_cell_length_c   20.00000000
_cell_angle_alpha   90.00000000
_cell_angle_beta   90.00000000
_cell_angle_gamma   92.87324645
_symmetry_Int_Tables_number   1
_chemical_formula_structural   I
_chemical_formula_sum   I1
_cell_volume   210.20759465
_cell_formula_units_Z   1
loop_
 _symmetry_equiv_pos_site_id
 _symmetry_equiv_pos_as_xyz
  1  'x, y, z'
loop_
 _atom_site_type_symbol
 _atom_site_label
 _atom_site_symmetry_multiplicity
 _atom_site_fract_x
 _atom_site_fract_y
 _atom_site_fract_z
 _atom_site_occupancy
  I  I1  1  -0.000000  -0.000000  0.500000  1
