# generated using pymatgen
data_AuCClO
_symmetry_space_group_name_H-M   'P 1'
_cell_length_a   4.12278593
_cell_length_b   5.09103428
_cell_length_c   26.58454300
_cell_angle_alpha   90.00000000
_cell_angle_beta   90.00000000
_cell_angle_gamma   90.00000000
_symmetry_Int_Tables_number   1
_chemical_formula_structural   AuCClO
_chemical_formula_sum   'Au2 C2 Cl2 O2'
_cell_volume   557.98947291
_cell_formula_units_Z   2
loop_
 _symmetry_equiv_pos_site_id
 _symmetry_equiv_pos_as_xyz
  1  'x, y, z'
loop_
 _atom_site_type_symbol
 _atom_site_label
 _atom_site_symmetry_multiplicity
 _atom_site_fract_x
 _atom_site_fract_y
 _atom_site_fract_z
 _atom_site_occupancy
  Au  Au1  1  -0.000000  0.500000  0.491529  1
  Au  Au2  1  0.500000  0.000000  0.508471  1
  C  C3  1  0.000000  0.500000  0.418735  1
  C  C4  1  0.500000  0.000000  0.581265  1
  Cl  Cl5  1  0.500000  -0.000000  0.422238  1
  Cl  Cl6  1  -0.000000  0.500000  0.577762  1
  O  O7  1  0.000000  0.500000  0.375810  1
  O  O8  1  0.500000  -0.000000  0.624190  1
