# generated using pymatgen
data_Li3V(OF)2
_symmetry_space_group_name_H-M   'P 1'
_cell_length_a   5.04672030
_cell_length_b   5.04548176
_cell_length_c   23.42640426
_cell_angle_alpha   90.00000000
_cell_angle_beta   90.00000000
_cell_angle_gamma   104.83042078
_symmetry_Int_Tables_number   1
_chemical_formula_structural   Li3V(OF)2
_chemical_formula_sum   'Li6 V2 O4 F4'
_cell_volume   576.63854525
_cell_formula_units_Z   2
loop_
 _symmetry_equiv_pos_site_id
 _symmetry_equiv_pos_as_xyz
  1  'x, y, z'
loop_
 _atom_site_type_symbol
 _atom_site_label
 _atom_site_symmetry_multiplicity
 _atom_site_fract_x
 _atom_site_fract_y
 _atom_site_fract_z
 _atom_site_occupancy
  Li  Li1  1  0.750000  0.500000  0.466024  1
  Li  Li2  1  0.750000  0.500000  0.580853  1
  Li  Li3  1  0.750000  0.000000  0.411913  1
  Li  Li4  1  0.250000  0.500000  0.419147  1
  Li  Li5  1  0.250000  0.500000  0.533976  1
  Li  Li6  1  0.250000  0.000000  0.588087  1
  V  V7  1  0.750000  0.000000  0.529086  1
  V  V8  1  0.250000  0.000000  0.470914  1
  O  O9  1  0.008541  0.765371  0.531567  1
  O  O10  1  0.491459  0.234629  0.531567  1
  O  O11  1  0.508541  0.765371  0.468433  1
  O  O12  1  0.991459  0.234629  0.468433  1
  F  F13  1  0.985168  0.244698  0.592174  1
  F  F14  1  0.485168  0.244698  0.407826  1
  F  F15  1  0.514832  0.755302  0.592174  1
  F  F16  1  0.014832  0.755302  0.407826  1
