# generated using pymatgen
data_VPbO3
_symmetry_space_group_name_H-M   'P 1'
_cell_length_a   3.84656233
_cell_length_b   3.84656233
_cell_length_c   23.41683081
_cell_angle_alpha   90.00000000
_cell_angle_beta   90.00000000
_cell_angle_gamma   90.00000000
_symmetry_Int_Tables_number   1
_chemical_formula_structural   VPbO3
_chemical_formula_sum   'V1 Pb1 O3'
_cell_volume   346.47640652
_cell_formula_units_Z   1
loop_
 _symmetry_equiv_pos_site_id
 _symmetry_equiv_pos_as_xyz
  1  'x, y, z'
loop_
 _atom_site_type_symbol
 _atom_site_label
 _atom_site_symmetry_multiplicity
 _atom_site_fract_x
 _atom_site_fract_y
 _atom_site_fract_z
 _atom_site_occupancy
  V  V1  1  0.000000  -0.000000  0.516951  1
  Pb  Pb2  1  0.500000  0.500000  0.429446  1
  O  O3  1  -0.000000  0.500000  0.484095  1
  O  O4  1  0.500000  0.000000  0.484095  1
  O  O5  1  -0.000000  0.000000  0.585414  1
