# generated using pymatgen
data_Y2C
_symmetry_space_group_name_H-M   'P 1'
_cell_length_a   3.54336838
_cell_length_b   3.54336818
_cell_length_c   22.69585800
_cell_angle_alpha   90.00000000
_cell_angle_beta   90.00000000
_cell_angle_gamma   59.99999812
_symmetry_Int_Tables_number   1
_chemical_formula_structural   Y2C
_chemical_formula_sum   'Y2 C1'
_cell_volume   246.77991772
_cell_formula_units_Z   1
loop_
 _symmetry_equiv_pos_site_id
 _symmetry_equiv_pos_as_xyz
  1  'x, y, z'
loop_
 _atom_site_type_symbol
 _atom_site_label
 _atom_site_symmetry_multiplicity
 _atom_site_fract_x
 _atom_site_fract_y
 _atom_site_fract_z
 _atom_site_occupancy
  Y  Y1  1  0.666667  0.666667  0.439994  1
  Y  Y2  1  0.333333  0.333333  0.560006  1
  C  C3  1  0.000000  0.000000  0.500000  1
