# generated using pymatgen
data_LiBe
_symmetry_space_group_name_H-M   'P 1'
_cell_length_a   2.36294075
_cell_length_b   2.15823736
_cell_length_c   26.09036500
_cell_angle_alpha   90.00000000
_cell_angle_beta   90.00000000
_cell_angle_gamma   90.00000000
_symmetry_Int_Tables_number   1
_chemical_formula_structural   LiBe
_chemical_formula_sum   'Li2 Be2'
_cell_volume   133.05530441
_cell_formula_units_Z   2
loop_
 _symmetry_equiv_pos_site_id
 _symmetry_equiv_pos_as_xyz
  1  'x, y, z'
loop_
 _atom_site_type_symbol
 _atom_site_label
 _atom_site_symmetry_multiplicity
 _atom_site_fract_x
 _atom_site_fract_y
 _atom_site_fract_z
 _atom_site_occupancy
  Li  Li1  1  0.034020  0.750000  0.548611  1
  Li  Li2  1  0.509099  0.250000  0.451389  1
  Be  Be3  1  0.536313  0.750000  0.631587  1
  Be  Be4  1  0.006806  0.250000  0.368413  1
