# generated using pymatgen
data_KNb3O8
_symmetry_space_group_name_H-M   'P 1'
_cell_length_a   3.85447759
_cell_length_b   9.09668203
_cell_length_c   30.15279900
_cell_angle_alpha   90.00000000
_cell_angle_beta   90.00000000
_cell_angle_gamma   90.00000000
_symmetry_Int_Tables_number   1
_chemical_formula_structural   KNb3O8
_chemical_formula_sum   'K2 Nb6 O16'
_cell_volume   1057.24629561
_cell_formula_units_Z   2
loop_
 _symmetry_equiv_pos_site_id
 _symmetry_equiv_pos_as_xyz
  1  'x, y, z'
loop_
 _atom_site_type_symbol
 _atom_site_label
 _atom_site_symmetry_multiplicity
 _atom_site_fract_x
 _atom_site_fract_y
 _atom_site_fract_z
 _atom_site_occupancy
  K  K1  1  -0.000000  -0.000000  0.348475  1
  K  K2  1  0.500000  0.500000  0.651525  1
  Nb  Nb3  1  0.500000  0.000000  0.505488  1
  Nb  Nb4  1  0.000000  0.500000  0.494512  1
  Nb  Nb5  1  -0.000000  0.188514  0.585243  1
  Nb  Nb6  1  0.500000  0.311486  0.414757  1
  Nb  Nb7  1  0.500000  0.688514  0.414757  1
  Nb  Nb8  1  -0.000000  0.811486  0.585243  1
  O  O9  1  0.000000  -0.000000  0.616555  1
  O  O10  1  0.500000  0.500000  0.383445  1
  O  O11  1  0.000000  0.000000  0.525258  1
  O  O12  1  0.500000  0.500000  0.474742  1
  O  O13  1  -0.000000  0.343867  0.533544  1
  O  O14  1  0.500000  0.156133  0.466456  1
  O  O15  1  0.500000  0.843867  0.466456  1
  O  O16  1  0.000000  0.656133  0.533544  1
  O  O17  1  -0.000000  0.341704  0.433628  1
  O  O18  1  0.500000  0.158296  0.566372  1
  O  O19  1  0.500000  0.841704  0.566372  1
  O  O20  1  0.000000  0.658296  0.433628  1
  O  O21  1  -0.000000  0.684330  0.630749  1
  O  O22  1  0.500000  0.815670  0.369251  1
  O  O23  1  0.500000  0.184330  0.369251  1
  O  O24  1  -0.000000  0.315670  0.630749  1
