# generated using pymatgen
data_CaInBr3
_symmetry_space_group_name_H-M   'P 1'
_cell_length_a   4.17404165
_cell_length_b   11.38518819
_cell_length_c   26.43598958
_cell_angle_alpha   90.00000000
_cell_angle_beta   90.00000000
_cell_angle_gamma   90.00000000
_symmetry_Int_Tables_number   1
_chemical_formula_structural   CaInBr3
_chemical_formula_sum   'Ca2 In2 Br6'
_cell_volume   1256.29769784
_cell_formula_units_Z   2
loop_
 _symmetry_equiv_pos_site_id
 _symmetry_equiv_pos_as_xyz
  1  'x, y, z'
loop_
 _atom_site_type_symbol
 _atom_site_label
 _atom_site_symmetry_multiplicity
 _atom_site_fract_x
 _atom_site_fract_y
 _atom_site_fract_z
 _atom_site_occupancy
  Ca  Ca1  1  0.500000  0.000000  0.500000  1
  Ca  Ca2  1  0.500000  0.500000  0.500000  1
  In  In3  1  0.000000  0.250000  0.608804  1
  In  In4  1  -0.000000  0.750000  0.391196  1
  Br  Br5  1  -0.000000  0.520336  0.574113  1
  Br  Br6  1  -0.000000  0.479664  0.425887  1
  Br  Br7  1  -0.000000  0.020336  0.425887  1
  Br  Br8  1  -0.000000  0.979664  0.574113  1
  Br  Br9  1  0.500000  0.250000  0.523207  1
  Br  Br10  1  0.500000  0.750000  0.476793  1
