# generated using pymatgen
data_LuSBr
_symmetry_space_group_name_H-M   'P 1'
_cell_length_a   3.93530837
_cell_length_b   5.52513848
_cell_length_c   26.04158400
_cell_angle_alpha   90.00000000
_cell_angle_beta   90.00000000
_cell_angle_gamma   90.00000000
_symmetry_Int_Tables_number   1
_chemical_formula_structural   LuSBr
_chemical_formula_sum   'Lu2 S2 Br2'
_cell_volume   566.22538241
_cell_formula_units_Z   2
loop_
 _symmetry_equiv_pos_site_id
 _symmetry_equiv_pos_as_xyz
  1  'x, y, z'
loop_
 _atom_site_type_symbol
 _atom_site_label
 _atom_site_symmetry_multiplicity
 _atom_site_fract_x
 _atom_site_fract_y
 _atom_site_fract_z
 _atom_site_occupancy
  Lu  Lu1  1  0.500000  -0.000000  0.438888  1
  Lu  Lu2  1  0.000000  0.500000  0.561112  1
  S  S3  1  0.500000  0.500000  0.616367  1
  S  S4  1  -0.000000  -0.000000  0.383633  1
  Br  Br5  1  -0.000000  0.000000  0.530013  1
  Br  Br6  1  0.500000  0.500000  0.469987  1
