# generated using pymatgen
data_TiZn(BiO3)2
_symmetry_space_group_name_H-M   'P 1'
_cell_length_a   5.60686776
_cell_length_b   5.60686776
_cell_length_c   24.14142100
_cell_angle_alpha   90.00000000
_cell_angle_beta   90.00000000
_cell_angle_gamma   90.00000000
_symmetry_Int_Tables_number   1
_chemical_formula_structural   TiZn(BiO3)2
_chemical_formula_sum   'Ti1 Zn1 Bi2 O6'
_cell_volume   758.93303305
_cell_formula_units_Z   1
loop_
 _symmetry_equiv_pos_site_id
 _symmetry_equiv_pos_as_xyz
  1  'x, y, z'
loop_
 _atom_site_type_symbol
 _atom_site_label
 _atom_site_symmetry_multiplicity
 _atom_site_fract_x
 _atom_site_fract_y
 _atom_site_fract_z
 _atom_site_occupancy
  Ti  Ti1  1  -0.000000  -0.000000  0.512221  1
  Zn  Zn2  1  0.500000  0.500000  0.522895  1
  Bi  Bi3  1  0.000000  0.500000  0.435369  1
  Bi  Bi4  1  0.500000  -0.000000  0.435369  1
  O  O5  1  0.754168  0.754168  0.479261  1
  O  O6  1  0.245832  0.754168  0.479261  1
  O  O7  1  0.500000  0.500000  0.597775  1
  O  O8  1  0.000000  -0.000000  0.579326  1
  O  O9  1  0.245832  0.245832  0.479261  1
  O  O10  1  0.754168  0.245832  0.479261  1
