# generated using pymatgen
data_PrGe5
_symmetry_space_group_name_H-M   'P 1'
_cell_length_a   3.56791132
_cell_length_b   6.60686483
_cell_length_c   23.39448800
_cell_angle_alpha   90.00000000
_cell_angle_beta   90.00000000
_cell_angle_gamma   90.00000000
_symmetry_Int_Tables_number   1
_chemical_formula_structural   PrGe5
_chemical_formula_sum   'Pr1 Ge5'
_cell_volume   551.47143014
_cell_formula_units_Z   1
loop_
 _symmetry_equiv_pos_site_id
 _symmetry_equiv_pos_as_xyz
  1  'x, y, z'
loop_
 _atom_site_type_symbol
 _atom_site_label
 _atom_site_symmetry_multiplicity
 _atom_site_fract_x
 _atom_site_fract_y
 _atom_site_fract_z
 _atom_site_occupancy
  Pr  Pr1  1  0.500000  0.000000  0.500000  1
  Ge  Ge2  1  0.000000  0.695248  0.570103  1
  Ge  Ge3  1  0.000000  0.304752  0.570103  1
  Ge  Ge4  1  -0.000000  0.304752  0.429897  1
  Ge  Ge5  1  -0.000000  0.695248  0.429897  1
  Ge  Ge6  1  0.500000  0.500000  0.500000  1
