# generated using pymatgen
data_Ga2Os
_symmetry_space_group_name_H-M   'P 1'
_cell_length_a   5.42821186
_cell_length_b   4.14847488
_cell_length_c   21.36463000
_cell_angle_alpha   90.00000000
_cell_angle_beta   90.00000000
_cell_angle_gamma   130.86218312
_symmetry_Int_Tables_number   1
_chemical_formula_structural   Ga2Os
_chemical_formula_sum   'Ga2 Os1'
_cell_volume   363.85334896
_cell_formula_units_Z   1
loop_
 _symmetry_equiv_pos_site_id
 _symmetry_equiv_pos_as_xyz
  1  'x, y, z'
loop_
 _atom_site_type_symbol
 _atom_site_label
 _atom_site_symmetry_multiplicity
 _atom_site_fract_x
 _atom_site_fract_y
 _atom_site_fract_z
 _atom_site_occupancy
  Ga  Ga1  1  0.500000  0.500000  0.553278  1
  Ga  Ga2  1  -0.000000  0.500000  0.446722  1
  Os  Os3  1  0.000000  0.000000  0.500000  1
