# generated using pymatgen
data_MnO2
_symmetry_space_group_name_H-M   'P 1'
_cell_length_a   2.89300930
_cell_length_b   3.82872975
_cell_length_c   24.18498900
_cell_angle_alpha   90.00000000
_cell_angle_beta   90.00000000
_cell_angle_gamma   90.00000000
_symmetry_Int_Tables_number   1
_chemical_formula_structural   MnO2
_chemical_formula_sum   'Mn2 O4'
_cell_volume   267.88625863
_cell_formula_units_Z   2
loop_
 _symmetry_equiv_pos_site_id
 _symmetry_equiv_pos_as_xyz
  1  'x, y, z'
loop_
 _atom_site_type_symbol
 _atom_site_label
 _atom_site_symmetry_multiplicity
 _atom_site_fract_x
 _atom_site_fract_y
 _atom_site_fract_z
 _atom_site_occupancy
  Mn  Mn1  1  0.000000  0.000000  0.540037  1
  Mn  Mn2  1  0.500000  0.500000  0.459963  1
  O  O3  1  0.500000  -0.000000  0.480192  1
  O  O4  1  0.500000  0.000000  0.586369  1
  O  O5  1  0.000000  0.500000  0.413631  1
  O  O6  1  0.000000  0.500000  0.519808  1
