# generated using pymatgen
data_CrAgSe2
_symmetry_space_group_name_H-M   'P 1'
_cell_length_a   3.40123194
_cell_length_b   3.40123176
_cell_length_c   26.88408252
_cell_angle_alpha   90.00000000
_cell_angle_beta   90.00000000
_cell_angle_gamma   59.99999828
_symmetry_Int_Tables_number   1
_chemical_formula_structural   CrAgSe2
_chemical_formula_sum   'Cr1 Ag1 Se2'
_cell_volume   269.33842668
_cell_formula_units_Z   1
loop_
 _symmetry_equiv_pos_site_id
 _symmetry_equiv_pos_as_xyz
  1  'x, y, z'
loop_
 _atom_site_type_symbol
 _atom_site_label
 _atom_site_symmetry_multiplicity
 _atom_site_fract_x
 _atom_site_fract_y
 _atom_site_fract_z
 _atom_site_occupancy
  Cr  Cr1  1  0.000000  -0.000000  0.461102  1
  Ag  Ag2  1  0.333333  0.333333  0.616753  1
  Se  Se3  1  0.333333  0.333333  0.517170  1
  Se  Se4  1  0.666667  0.666667  0.404976  1
