# generated using pymatgen
data_RhCl3
_symmetry_space_group_name_H-M   'P 1'
_cell_length_a   6.02763769
_cell_length_b   6.02763819
_cell_length_c   22.63123600
_cell_angle_alpha   90.00000000
_cell_angle_beta   90.00000000
_cell_angle_gamma   119.99745706
_symmetry_Int_Tables_number   1
_chemical_formula_structural   RhCl3
_chemical_formula_sum   'Rh2 Cl6'
_cell_volume   712.10551520
_cell_formula_units_Z   2
loop_
 _symmetry_equiv_pos_site_id
 _symmetry_equiv_pos_as_xyz
  1  'x, y, z'
loop_
 _atom_site_type_symbol
 _atom_site_label
 _atom_site_symmetry_multiplicity
 _atom_site_fract_x
 _atom_site_fract_y
 _atom_site_fract_z
 _atom_site_occupancy
  Rh  Rh1  1  0.166699  0.833301  0.500000  1
  Rh  Rh2  1  0.833301  0.166699  0.500000  1
  Cl  Cl3  1  0.849803  0.500004  0.558794  1
  Cl  Cl4  1  0.499996  0.150197  0.441206  1
  Cl  Cl5  1  0.849968  0.849968  0.441169  1
  Cl  Cl6  1  0.150032  0.150032  0.558831  1
  Cl  Cl7  1  0.500004  0.849803  0.558794  1
  Cl  Cl8  1  0.150197  0.499996  0.441206  1
