# generated using pymatgen
data_Sr2CoO3
_symmetry_space_group_name_H-M   'P 1'
_cell_length_a   3.50753786
_cell_length_b   3.50753720
_cell_length_c   24.52105600
_cell_angle_alpha   90.00000000
_cell_angle_beta   90.00000000
_cell_angle_gamma   90.73921496
_symmetry_Int_Tables_number   1
_chemical_formula_structural   Sr2CoO3
_chemical_formula_sum   'Sr2 Co1 O3'
_cell_volume   301.65301860
_cell_formula_units_Z   1
loop_
 _symmetry_equiv_pos_site_id
 _symmetry_equiv_pos_as_xyz
  1  'x, y, z'
loop_
 _atom_site_type_symbol
 _atom_site_label
 _atom_site_symmetry_multiplicity
 _atom_site_fract_x
 _atom_site_fract_y
 _atom_site_fract_z
 _atom_site_occupancy
  Sr  Sr1  1  0.925632  0.925632  0.592600  1
  Sr  Sr2  1  0.925402  0.925402  0.407400  1
  Co  Co3  1  0.425517  0.425517  0.500000  1
  O  O4  1  0.925517  0.925517  0.500000  1
  O  O5  1  0.425631  0.425631  0.583894  1
  O  O6  1  0.425404  0.425404  0.416106  1
