# generated using pymatgen
data_Sr(SnAs)2
_symmetry_space_group_name_H-M   'P 1'
_cell_length_a   4.16661855
_cell_length_b   4.16661851
_cell_length_c   27.23763823
_cell_angle_alpha   90.00000000
_cell_angle_beta   90.00000000
_cell_angle_gamma   59.99999240
_symmetry_Int_Tables_number   1
_chemical_formula_structural   Sr(SnAs)2
_chemical_formula_sum   'Sr1 Sn2 As2'
_cell_volume   409.51284391
_cell_formula_units_Z   1
loop_
 _symmetry_equiv_pos_site_id
 _symmetry_equiv_pos_as_xyz
  1  'x, y, z'
loop_
 _atom_site_type_symbol
 _atom_site_label
 _atom_site_symmetry_multiplicity
 _atom_site_fract_x
 _atom_site_fract_y
 _atom_site_fract_z
 _atom_site_occupancy
  Sr  Sr1  1  -0.000000  -0.000000  0.500000  1
  Sn  Sn2  1  0.333333  0.333333  0.626672  1
  Sn  Sn3  1  0.666667  0.666667  0.373328  1
  As  As4  1  0.666667  0.666667  0.573151  1
  As  As5  1  0.333333  0.333333  0.426849  1
