# generated using pymatgen
data_AgBrO4
_symmetry_space_group_name_H-M   'P 1'
_cell_length_a   4.90621096
_cell_length_b   4.90621096
_cell_length_c   21.85194700
_cell_angle_alpha   90.00000000
_cell_angle_beta   90.00000000
_cell_angle_gamma   90.00000000
_symmetry_Int_Tables_number   1
_chemical_formula_structural   AgBrO4
_chemical_formula_sum   'Ag1 Br1 O4'
_cell_volume   525.99616180
_cell_formula_units_Z   1
loop_
 _symmetry_equiv_pos_site_id
 _symmetry_equiv_pos_as_xyz
  1  'x, y, z'
loop_
 _atom_site_type_symbol
 _atom_site_label
 _atom_site_symmetry_multiplicity
 _atom_site_fract_x
 _atom_site_fract_y
 _atom_site_fract_z
 _atom_site_occupancy
  Ag  Ag1  1  -0.000000  -0.000000  0.500000  1
  Br  Br2  1  0.500000  0.500000  0.500000  1
  O  O3  1  0.718179  0.333459  0.544616  1
  O  O4  1  0.666541  0.718179  0.455384  1
  O  O5  1  0.333459  0.281821  0.455384  1
  O  O6  1  0.281821  0.666541  0.544616  1
