# generated using pymatgen
data_DyTe3
_symmetry_space_group_name_H-M   'P 1'
_cell_length_a   4.34756442
_cell_length_b   4.34764386
_cell_length_c   29.10735800
_cell_angle_alpha   90.00000000
_cell_angle_beta   90.00000000
_cell_angle_gamma   90.00000000
_symmetry_Int_Tables_number   1
_chemical_formula_structural   DyTe3
_chemical_formula_sum   'Dy2 Te6'
_cell_volume   550.17743554
_cell_formula_units_Z   2
loop_
 _symmetry_equiv_pos_site_id
 _symmetry_equiv_pos_as_xyz
  1  'x, y, z'
loop_
 _atom_site_type_symbol
 _atom_site_label
 _atom_site_symmetry_multiplicity
 _atom_site_fract_x
 _atom_site_fract_y
 _atom_site_fract_z
 _atom_site_occupancy
  Dy  Dy1  1  0.500000  -0.000000  0.570729  1
  Dy  Dy2  1  0.000000  0.500000  0.429271  1
  Te  Te3  1  -0.000000  -0.000000  0.343638  1
  Te  Te4  1  0.500000  0.500000  0.656362  1
  Te  Te5  1  0.000000  -0.000000  0.656342  1
  Te  Te6  1  0.500000  0.500000  0.343658  1
  Te  Te7  1  0.500000  0.000000  0.460806  1
  Te  Te8  1  0.000000  0.500000  0.539194  1
