# generated using pymatgen
data_TiTl2F6
_symmetry_space_group_name_H-M   'P 1'
_cell_length_a   5.88740749
_cell_length_b   5.88740638
_cell_length_c   21.95592060
_cell_angle_alpha   90.00000000
_cell_angle_beta   90.00000000
_cell_angle_gamma   120.00000037
_symmetry_Int_Tables_number   1
_chemical_formula_structural   TiTl2F6
_chemical_formula_sum   'Ti1 Tl2 F6'
_cell_volume   659.06825169
_cell_formula_units_Z   1
loop_
 _symmetry_equiv_pos_site_id
 _symmetry_equiv_pos_as_xyz
  1  'x, y, z'
loop_
 _atom_site_type_symbol
 _atom_site_label
 _atom_site_symmetry_multiplicity
 _atom_site_fract_x
 _atom_site_fract_y
 _atom_site_fract_z
 _atom_site_occupancy
  Ti  Ti1  1  0.000000  0.000000  0.500000  1
  Tl  Tl2  1  0.333333  0.666667  0.441023  1
  Tl  Tl3  1  0.666667  0.333333  0.558977  1
  F  F4  1  0.153807  0.307613  0.548194  1
  F  F5  1  0.153807  0.846193  0.548194  1
  F  F6  1  0.692387  0.846193  0.548194  1
  F  F7  1  0.846193  0.692387  0.451806  1
  F  F8  1  0.846193  0.153807  0.451806  1
  F  F9  1  0.307613  0.153807  0.451806  1
