# generated using pymatgen
data_AgN3
_symmetry_space_group_name_H-M   'P 1'
_cell_length_a   5.41362361
_cell_length_b   6.33049665
_cell_length_c   21.24884500
_cell_angle_alpha   90.00000000
_cell_angle_beta   90.00000000
_cell_angle_gamma   90.00000000
_symmetry_Int_Tables_number   1
_chemical_formula_structural   AgN3
_chemical_formula_sum   'Ag2 N6'
_cell_volume   728.21759729
_cell_formula_units_Z   2
loop_
 _symmetry_equiv_pos_site_id
 _symmetry_equiv_pos_as_xyz
  1  'x, y, z'
loop_
 _atom_site_type_symbol
 _atom_site_label
 _atom_site_symmetry_multiplicity
 _atom_site_fract_x
 _atom_site_fract_y
 _atom_site_fract_z
 _atom_site_occupancy
  Ag  Ag1  1  0.500000  0.750000  0.500000  1
  Ag  Ag2  1  0.500000  0.250000  0.500000  1
  N  N3  1  0.806028  0.500000  0.526042  1
  N  N4  1  0.806028  -0.000000  0.473958  1
  N  N5  1  0.000000  0.500000  0.500000  1
  N  N6  1  0.000000  -0.000000  0.500000  1
  N  N7  1  0.193972  0.500000  0.473958  1
  N  N8  1  0.193972  -0.000000  0.526042  1
