# generated using pymatgen
data_CeMg2
_symmetry_space_group_name_H-M   'P 1'
_cell_length_a   3.07336875
_cell_length_b   5.34415453
_cell_length_c   27.93177700
_cell_angle_alpha   90.00000000
_cell_angle_beta   90.00000000
_cell_angle_gamma   90.00000000
_symmetry_Int_Tables_number   1
_chemical_formula_structural   CeMg2
_chemical_formula_sum   'Ce2 Mg4'
_cell_volume   458.76707819
_cell_formula_units_Z   2
loop_
 _symmetry_equiv_pos_site_id
 _symmetry_equiv_pos_as_xyz
  1  'x, y, z'
loop_
 _atom_site_type_symbol
 _atom_site_label
 _atom_site_symmetry_multiplicity
 _atom_site_fract_x
 _atom_site_fract_y
 _atom_site_fract_z
 _atom_site_occupancy
  Ce  Ce1  1  0.500000  0.750000  0.473809  1
  Ce  Ce2  1  0.500000  0.250000  0.526191  1
  Mg  Mg3  1  0.000000  0.750000  0.367016  1
  Mg  Mg4  1  -0.000000  0.250000  0.419661  1
  Mg  Mg5  1  0.000000  0.750000  0.580339  1
  Mg  Mg6  1  0.000000  0.250000  0.632984  1
