# generated using pymatgen
data_TmClO
_symmetry_space_group_name_H-M   'P 1'
_cell_length_a   3.72448838
_cell_length_b   3.72448821
_cell_length_c   26.27743400
_cell_angle_alpha   90.00000000
_cell_angle_beta   90.00000000
_cell_angle_gamma   60.00000720
_symmetry_Int_Tables_number   1
_chemical_formula_structural   TmClO
_chemical_formula_sum   'Tm2 Cl2 O2'
_cell_volume   315.67983773
_cell_formula_units_Z   2
loop_
 _symmetry_equiv_pos_site_id
 _symmetry_equiv_pos_as_xyz
  1  'x, y, z'
loop_
 _atom_site_type_symbol
 _atom_site_label
 _atom_site_symmetry_multiplicity
 _atom_site_fract_x
 _atom_site_fract_y
 _atom_site_fract_z
 _atom_site_occupancy
  Tm  Tm1  1  0.666667  0.666667  0.446312  1
  Tm  Tm2  1  0.333333  0.333333  0.553688  1
  Cl  Cl3  1  -0.000000  -0.000000  0.619299  1
  Cl  Cl4  1  -0.000000  -0.000000  0.380701  1
  O  O5  1  0.666667  0.666667  0.531967  1
  O  O6  1  0.333333  0.333333  0.468033  1
