# generated using pymatgen
data_VBr2
_symmetry_space_group_name_H-M   'P 1'
_cell_length_a   3.81715955
_cell_length_b   3.81715885
_cell_length_c   22.90311400
_cell_angle_alpha   90.00000000
_cell_angle_beta   90.00000000
_cell_angle_gamma   119.99854374
_symmetry_Int_Tables_number   1
_chemical_formula_structural   VBr2
_chemical_formula_sum   'V1 Br2'
_cell_volume   289.00947786
_cell_formula_units_Z   1
loop_
 _symmetry_equiv_pos_site_id
 _symmetry_equiv_pos_as_xyz
  1  'x, y, z'
loop_
 _atom_site_type_symbol
 _atom_site_label
 _atom_site_symmetry_multiplicity
 _atom_site_fract_x
 _atom_site_fract_y
 _atom_site_fract_z
 _atom_site_occupancy
  V  V1  1  -0.000000  -0.000000  0.500000  1
  Br  Br2  1  0.666662  0.333338  0.563553  1
  Br  Br3  1  0.333338  0.666662  0.436447  1
