# generated using pymatgen
data_MgTi
_symmetry_space_group_name_H-M   'P 1'
_cell_length_a   4.16404031
_cell_length_b   4.10201039
_cell_length_c   24.73191100
_cell_angle_alpha   90.00000000
_cell_angle_beta   90.00000000
_cell_angle_gamma   90.00000000
_symmetry_Int_Tables_number   1
_chemical_formula_structural   MgTi
_chemical_formula_sum   'Mg4 Ti4'
_cell_volume   422.44420418
_cell_formula_units_Z   4
loop_
 _symmetry_equiv_pos_site_id
 _symmetry_equiv_pos_as_xyz
  1  'x, y, z'
loop_
 _atom_site_type_symbol
 _atom_site_label
 _atom_site_symmetry_multiplicity
 _atom_site_fract_x
 _atom_site_fract_y
 _atom_site_fract_z
 _atom_site_occupancy
  Mg  Mg1  1  0.750000  0.999977  0.369198  1
  Mg  Mg2  1  0.750000  0.499977  0.630802  1
  Mg  Mg3  1  0.250000  0.500023  0.369198  1
  Mg  Mg4  1  0.250000  0.000023  0.630802  1
  Ti  Ti5  1  0.750000  0.499994  0.461966  1
  Ti  Ti6  1  0.750000  -0.000006  0.538034  1
  Ti  Ti7  1  0.250000  0.000006  0.461966  1
  Ti  Ti8  1  0.250000  0.500006  0.538034  1
