# generated using pymatgen
data_MnAlGe
_symmetry_space_group_name_H-M   'P 1'
_cell_length_a   3.73447923
_cell_length_b   3.73447923
_cell_length_c   23.49635000
_cell_angle_alpha   90.00000000
_cell_angle_beta   90.00000000
_cell_angle_gamma   90.00000000
_symmetry_Int_Tables_number   1
_chemical_formula_structural   MnAlGe
_chemical_formula_sum   'Mn2 Al2 Ge2'
_cell_volume   327.68797118
_cell_formula_units_Z   2
loop_
 _symmetry_equiv_pos_site_id
 _symmetry_equiv_pos_as_xyz
  1  'x, y, z'
loop_
 _atom_site_type_symbol
 _atom_site_label
 _atom_site_symmetry_multiplicity
 _atom_site_fract_x
 _atom_site_fract_y
 _atom_site_fract_z
 _atom_site_occupancy
  Mn  Mn1  1  0.500000  0.500000  0.500000  1
  Mn  Mn2  1  -0.000000  0.000000  0.500000  1
  Al  Al3  1  0.500000  0.000000  0.577131  1
  Al  Al4  1  0.000000  0.500000  0.422869  1
  Ge  Ge5  1  0.000000  0.500000  0.583328  1
  Ge  Ge6  1  0.500000  -0.000000  0.416672  1
