# generated using pymatgen
data_CaSi3Ir
_symmetry_space_group_name_H-M   'P 1'
_cell_length_a   4.16143023
_cell_length_b   4.16143023
_cell_length_c   23.49154600
_cell_angle_alpha   90.00000000
_cell_angle_beta   90.00000000
_cell_angle_gamma   90.00000000
_symmetry_Int_Tables_number   1
_chemical_formula_structural   CaSi3Ir
_chemical_formula_sum   'Ca1 Si3 Ir1'
_cell_volume   406.81488448
_cell_formula_units_Z   1
loop_
 _symmetry_equiv_pos_site_id
 _symmetry_equiv_pos_as_xyz
  1  'x, y, z'
loop_
 _atom_site_type_symbol
 _atom_site_label
 _atom_site_symmetry_multiplicity
 _atom_site_fract_x
 _atom_site_fract_y
 _atom_site_fract_z
 _atom_site_occupancy
  Ca  Ca1  1  0.500000  0.500000  0.552764  1
  Si  Si2  1  -0.000000  0.000000  0.585156  1
  Si  Si3  1  0.000000  0.500000  0.436836  1
  Si  Si4  1  0.500000  -0.000000  0.436836  1
  Ir  Ir5  1  0.000000  -0.000000  0.488409  1
