# generated using pymatgen
data_CoOF
_symmetry_space_group_name_H-M   'P 1'
_cell_length_a   2.86483568
_cell_length_b   6.28925874
_cell_length_c   22.75008300
_cell_angle_alpha   90.00000000
_cell_angle_beta   90.00000000
_cell_angle_gamma   90.00000000
_symmetry_Int_Tables_number   1
_chemical_formula_structural   CoOF
_chemical_formula_sum   'Co2 O2 F2'
_cell_volume   409.90400756
_cell_formula_units_Z   2
loop_
 _symmetry_equiv_pos_site_id
 _symmetry_equiv_pos_as_xyz
  1  'x, y, z'
loop_
 _atom_site_type_symbol
 _atom_site_label
 _atom_site_symmetry_multiplicity
 _atom_site_fract_x
 _atom_site_fract_y
 _atom_site_fract_z
 _atom_site_occupancy
  Co  Co1  1  -0.000000  0.500000  0.500000  1
  Co  Co2  1  0.500000  -0.000000  0.500000  1
  O  O3  1  0.000000  0.187423  0.500000  1
  O  O4  1  -0.000000  0.812577  0.500000  1
  F  F5  1  0.500000  0.500000  0.556805  1
  F  F6  1  0.500000  0.500000  0.443195  1
