# generated using pymatgen
data_NdTe2Se
_symmetry_space_group_name_H-M   'P 1'
_cell_length_a   4.30463876
_cell_length_b   4.30822185
_cell_length_c   29.00716600
_cell_angle_alpha   90.00000000
_cell_angle_beta   90.00000000
_cell_angle_gamma   90.00000000
_symmetry_Int_Tables_number   1
_chemical_formula_structural   NdTe2Se
_chemical_formula_sum   'Nd2 Te4 Se2'
_cell_volume   537.94772000
_cell_formula_units_Z   2
loop_
 _symmetry_equiv_pos_site_id
 _symmetry_equiv_pos_as_xyz
  1  'x, y, z'
loop_
 _atom_site_type_symbol
 _atom_site_label
 _atom_site_symmetry_multiplicity
 _atom_site_fract_x
 _atom_site_fract_y
 _atom_site_fract_z
 _atom_site_occupancy
  Nd  Nd1  1  0.500000  0.500000  0.563741  1
  Nd  Nd2  1  -0.000000  0.000000  0.436259  1
  Te  Te3  1  0.500000  0.000000  0.344842  1
  Te  Te4  1  0.000000  0.500000  0.655158  1
  Te  Te5  1  0.000000  0.500000  0.344844  1
  Te  Te6  1  0.500000  -0.000000  0.655156  1
  Se  Se7  1  0.500000  0.500000  0.459975  1
  Se  Se8  1  -0.000000  -0.000000  0.540025  1
