# generated using pymatgen
data_HoBrO
_symmetry_space_group_name_H-M   'P 1'
_cell_length_a   3.81441335
_cell_length_b   3.81441291
_cell_length_c   26.68075100
_cell_angle_alpha   90.00000000
_cell_angle_beta   90.00000000
_cell_angle_gamma   59.99999630
_symmetry_Int_Tables_number   1
_chemical_formula_structural   HoBrO
_chemical_formula_sum   'Ho2 Br2 O2'
_cell_volume   336.18948272
_cell_formula_units_Z   2
loop_
 _symmetry_equiv_pos_site_id
 _symmetry_equiv_pos_as_xyz
  1  'x, y, z'
loop_
 _atom_site_type_symbol
 _atom_site_label
 _atom_site_symmetry_multiplicity
 _atom_site_fract_x
 _atom_site_fract_y
 _atom_site_fract_z
 _atom_site_occupancy
  Ho  Ho1  1  0.333333  0.333333  0.553227  1
  Ho  Ho2  1  -0.000000  -0.000000  0.446773  1
  Br  Br3  1  0.666667  0.666667  0.625003  1
  Br  Br4  1  0.666667  0.666667  0.374997  1
  O  O5  1  0.000000  0.000000  0.531881  1
  O  O6  1  0.333333  0.333333  0.468119  1
