# generated using pymatgen
data_LiBH4
_symmetry_space_group_name_H-M   'P 1'
_cell_length_a   4.10097997
_cell_length_b   4.10098038
_cell_length_c   21.62392900
_cell_angle_alpha   90.00000000
_cell_angle_beta   90.00000000
_cell_angle_gamma   120.00000424
_symmetry_Int_Tables_number   1
_chemical_formula_structural   LiBH4
_chemical_formula_sum   'Li1 B1 H4'
_cell_volume   314.94923600
_cell_formula_units_Z   1
loop_
 _symmetry_equiv_pos_site_id
 _symmetry_equiv_pos_as_xyz
  1  'x, y, z'
loop_
 _atom_site_type_symbol
 _atom_site_label
 _atom_site_symmetry_multiplicity
 _atom_site_fract_x
 _atom_site_fract_y
 _atom_site_fract_z
 _atom_site_occupancy
  Li  Li1  1  0.333333  0.666667  0.500523  1
  B  B2  1  0.000000  -0.000000  0.500597  1
  H  H3  1  0.000000  -0.000000  0.557315  1
  H  H4  1  0.320627  0.160314  0.480521  1
  H  H5  1  0.839686  0.679373  0.480521  1
  H  H6  1  0.839686  0.160314  0.480521  1
