# generated using pymatgen
data_MgSb3
_symmetry_space_group_name_H-M   'P 1'
_cell_length_a   3.24475342
_cell_length_b   5.87634999
_cell_length_c   24.79655300
_cell_angle_alpha   90.00000000
_cell_angle_beta   90.00000000
_cell_angle_gamma   90.00000000
_symmetry_Int_Tables_number   1
_chemical_formula_structural   MgSb3
_chemical_formula_sum   'Mg1 Sb3'
_cell_volume   472.80348183
_cell_formula_units_Z   1
loop_
 _symmetry_equiv_pos_site_id
 _symmetry_equiv_pos_as_xyz
  1  'x, y, z'
loop_
 _atom_site_type_symbol
 _atom_site_label
 _atom_site_symmetry_multiplicity
 _atom_site_fract_x
 _atom_site_fract_y
 _atom_site_fract_z
 _atom_site_occupancy
  Mg  Mg1  1  -0.000000  0.714094  0.500000  1
  Sb  Sb2  1  0.500000  0.157090  0.500000  1
  Sb  Sb3  1  0.500000  0.481075  0.413052  1
  Sb  Sb4  1  0.500000  0.481075  0.586948  1
