# generated using pymatgen
data_Sb2TeSe2
_symmetry_space_group_name_H-M   'P 1'
_cell_length_a   4.15728357
_cell_length_b   4.15728383
_cell_length_c   27.16439400
_cell_angle_alpha   90.00000000
_cell_angle_beta   90.00000000
_cell_angle_gamma   60.00000218
_symmetry_Int_Tables_number   1
_chemical_formula_structural   Sb2TeSe2
_chemical_formula_sum   'Sb2 Te1 Se2'
_cell_volume   406.58372237
_cell_formula_units_Z   1
loop_
 _symmetry_equiv_pos_site_id
 _symmetry_equiv_pos_as_xyz
  1  'x, y, z'
loop_
 _atom_site_type_symbol
 _atom_site_label
 _atom_site_symmetry_multiplicity
 _atom_site_fract_x
 _atom_site_fract_y
 _atom_site_fract_z
 _atom_site_occupancy
  Sb  Sb1  1  0.333333  0.333333  0.576585  1
  Sb  Sb2  1  0.000000  0.000000  0.423415  1
  Te  Te3  1  0.666667  0.666667  0.500000  1
  Se  Se4  1  -0.000000  -0.000000  0.632049  1
  Se  Se5  1  0.333333  0.333333  0.367951  1
