# generated using pymatgen
data_CaFeSO
_symmetry_space_group_name_H-M   'P 1'
_cell_length_a   3.91377969
_cell_length_b   3.91377887
_cell_length_c   23.67932300
_cell_angle_alpha   90.00000000
_cell_angle_beta   90.00000000
_cell_angle_gamma   119.99999758
_symmetry_Int_Tables_number   1
_chemical_formula_structural   CaFeSO
_chemical_formula_sum   'Ca1 Fe1 S1 O1'
_cell_volume   314.11782628
_cell_formula_units_Z   1
loop_
 _symmetry_equiv_pos_site_id
 _symmetry_equiv_pos_as_xyz
  1  'x, y, z'
loop_
 _atom_site_type_symbol
 _atom_site_label
 _atom_site_symmetry_multiplicity
 _atom_site_fract_x
 _atom_site_fract_y
 _atom_site_fract_z
 _atom_site_occupancy
  Ca  Ca1  1  0.000000  0.000000  0.446841  1
  Fe  Fe2  1  0.666667  0.333333  0.539183  1
  S  S3  1  0.000000  0.000000  0.565476  1
  O  O4  1  0.666667  0.333333  0.448500  1
