# generated using pymatgen
data_CaI2
_symmetry_space_group_name_H-M   'P 1'
_cell_length_a   4.48504840
_cell_length_b   4.48504782
_cell_length_c   23.52984500
_cell_angle_alpha   90.00000000
_cell_angle_beta   90.00000000
_cell_angle_gamma   119.99999721
_symmetry_Int_Tables_number   1
_chemical_formula_structural   CaI2
_chemical_formula_sum   'Ca1 I2'
_cell_volume   409.90566629
_cell_formula_units_Z   1
loop_
 _symmetry_equiv_pos_site_id
 _symmetry_equiv_pos_as_xyz
  1  'x, y, z'
loop_
 _atom_site_type_symbol
 _atom_site_label
 _atom_site_symmetry_multiplicity
 _atom_site_fract_x
 _atom_site_fract_y
 _atom_site_fract_z
 _atom_site_occupancy
  Ca  Ca1  1  0.000000  0.000000  0.500000  1
  I  I2  1  0.333333  0.666667  0.425241  1
  I  I3  1  0.666667  0.333333  0.574759  1
