# generated using pymatgen
data_Co(SiSe2)2
_symmetry_space_group_name_H-M   'P 1'
_cell_length_a   3.55498309
_cell_length_b   6.88648187
_cell_length_c   22.89603000
_cell_angle_alpha   90.00000000
_cell_angle_beta   90.00000000
_cell_angle_gamma   104.95812868
_symmetry_Int_Tables_number   1
_chemical_formula_structural   Co(SiSe2)2
_chemical_formula_sum   'Co1 Si2 Se4'
_cell_volume   541.53163049
_cell_formula_units_Z   1
loop_
 _symmetry_equiv_pos_site_id
 _symmetry_equiv_pos_as_xyz
  1  'x, y, z'
loop_
 _atom_site_type_symbol
 _atom_site_label
 _atom_site_symmetry_multiplicity
 _atom_site_fract_x
 _atom_site_fract_y
 _atom_site_fract_z
 _atom_site_occupancy
  Co  Co1  1  -0.000000  -0.000000  0.500000  1
  Si  Si2  1  0.190963  0.381928  0.449145  1
  Si  Si3  1  0.809037  0.618072  0.550855  1
  Se  Se4  1  0.442733  0.885466  0.568464  1
  Se  Se5  1  0.557267  0.114534  0.431536  1
  Se  Se6  1  0.161019  0.322038  0.552824  1
  Se  Se7  1  0.838981  0.677962  0.447176  1
