# generated using pymatgen
data_BPt2
_symmetry_space_group_name_H-M   'P 1'
_cell_length_a   2.82540954
_cell_length_b   2.82541013
_cell_length_c   22.78041900
_cell_angle_alpha   90.00000000
_cell_angle_beta   90.00000000
_cell_angle_gamma   119.98034434
_symmetry_Int_Tables_number   1
_chemical_formula_structural   BPt2
_chemical_formula_sum   'B1 Pt2'
_cell_volume   157.52200435
_cell_formula_units_Z   1
loop_
 _symmetry_equiv_pos_site_id
 _symmetry_equiv_pos_as_xyz
  1  'x, y, z'
loop_
 _atom_site_type_symbol
 _atom_site_label
 _atom_site_symmetry_multiplicity
 _atom_site_fract_x
 _atom_site_fract_y
 _atom_site_fract_z
 _atom_site_occupancy
  B  B1  1  0.666725  0.333275  0.500000  1
  Pt  Pt2  1  0.333291  0.666709  0.434417  1
  Pt  Pt3  1  0.333291  0.666709  0.565583  1
