# generated using pymatgen
data_CaCoO3
_symmetry_space_group_name_H-M   'P 1'
_cell_length_a   3.16777846
_cell_length_b   3.16777839
_cell_length_c   23.88617500
_cell_angle_alpha   90.00000000
_cell_angle_beta   90.00000000
_cell_angle_gamma   89.97049531
_symmetry_Int_Tables_number   1
_chemical_formula_structural   CaCoO3
_chemical_formula_sum   'Ca1 Co1 O3'
_cell_volume   239.69343858
_cell_formula_units_Z   1
loop_
 _symmetry_equiv_pos_site_id
 _symmetry_equiv_pos_as_xyz
  1  'x, y, z'
loop_
 _atom_site_type_symbol
 _atom_site_label
 _atom_site_symmetry_multiplicity
 _atom_site_fract_x
 _atom_site_fract_y
 _atom_site_fract_z
 _atom_site_occupancy
  Ca  Ca1  1  0.352507  0.352507  0.428441  1
  Co  Co2  1  0.858474  0.858474  0.524598  1
  O  O3  1  0.852598  0.852598  0.436559  1
  O  O4  1  0.852941  0.852941  0.591992  1
  O  O5  1  0.346060  0.346060  0.518410  1
