# generated using pymatgen
data_RbMg6BO7
_symmetry_space_group_name_H-M   'P 1'
_cell_length_a   4.03327875
_cell_length_b   4.03327875
_cell_length_c   29.09359800
_cell_angle_alpha   90.00000000
_cell_angle_beta   90.00000000
_cell_angle_gamma   90.00000000
_symmetry_Int_Tables_number   1
_chemical_formula_structural   RbMg6BO7
_chemical_formula_sum   'Rb1 Mg6 B1 O7'
_cell_volume   473.27537703
_cell_formula_units_Z   1
loop_
 _symmetry_equiv_pos_site_id
 _symmetry_equiv_pos_as_xyz
  1  'x, y, z'
loop_
 _atom_site_type_symbol
 _atom_site_label
 _atom_site_symmetry_multiplicity
 _atom_site_fract_x
 _atom_site_fract_y
 _atom_site_fract_z
 _atom_site_occupancy
  Rb  Rb1  1  0.000000  0.000000  0.331744  1
  Mg  Mg2  1  -0.000000  -0.000000  0.546951  1
  Mg  Mg3  1  0.500000  0.500000  0.566731  1
  Mg  Mg4  1  0.500000  -0.000000  0.640019  1
  Mg  Mg5  1  0.500000  -0.000000  0.456106  1
  Mg  Mg6  1  -0.000000  0.500000  0.640019  1
  Mg  Mg7  1  -0.000000  0.500000  0.456106  1
  B  B8  1  0.500000  0.500000  0.398353  1
  O  O9  1  0.000000  0.000000  0.477327  1
  O  O10  1  0.500000  0.500000  0.638282  1
  O  O11  1  0.500000  0.500000  0.447460  1
  O  O12  1  0.500000  0.000000  0.388962  1
  O  O13  1  0.500000  0.000000  0.561489  1
  O  O14  1  0.000000  0.500000  0.388962  1
  O  O15  1  0.000000  0.500000  0.561489  1
