# generated using pymatgen
data_Mg2H2O3
_symmetry_space_group_name_H-M   'P 1'
_cell_length_a   3.07819529
_cell_length_b   3.07819465
_cell_length_c   26.50041300
_cell_angle_alpha   90.00000000
_cell_angle_beta   90.00000000
_cell_angle_gamma   119.99999620
_symmetry_Int_Tables_number   1
_chemical_formula_structural   Mg2H2O3
_chemical_formula_sum   'Mg2 H2 O3'
_cell_volume   217.45807515
_cell_formula_units_Z   1
loop_
 _symmetry_equiv_pos_site_id
 _symmetry_equiv_pos_as_xyz
  1  'x, y, z'
loop_
 _atom_site_type_symbol
 _atom_site_label
 _atom_site_symmetry_multiplicity
 _atom_site_fract_x
 _atom_site_fract_y
 _atom_site_fract_z
 _atom_site_occupancy
  Mg  Mg1  1  0.333333  0.666667  0.453636  1
  Mg  Mg2  1  0.666667  0.333333  0.546364  1
  H  H3  1  0.333333  0.666667  0.622550  1
  H  H4  1  0.666667  0.333333  0.377450  1
  O  O5  1  0.333333  0.666667  0.585988  1
  O  O6  1  0.666667  0.333333  0.414012  1
  O  O7  1  -0.000000  -0.000000  0.500000  1
