# generated using pymatgen
data_FeCl3
_symmetry_space_group_name_H-M   'P 1'
_cell_length_a   6.08272907
_cell_length_b   6.08272840
_cell_length_c   22.75787900
_cell_angle_alpha   90.00000000
_cell_angle_beta   90.00000000
_cell_angle_gamma   119.99999853
_symmetry_Int_Tables_number   1
_chemical_formula_structural   FeCl3
_chemical_formula_sum   'Fe2 Cl6'
_cell_volume   729.22125747
_cell_formula_units_Z   2
loop_
 _symmetry_equiv_pos_site_id
 _symmetry_equiv_pos_as_xyz
  1  'x, y, z'
loop_
 _atom_site_type_symbol
 _atom_site_label
 _atom_site_symmetry_multiplicity
 _atom_site_fract_x
 _atom_site_fract_y
 _atom_site_fract_z
 _atom_site_occupancy
  Fe  Fe1  1  0.666667  0.333333  0.499876  1
  Fe  Fe2  1  -0.000000  0.000000  0.500278  1
  Cl  Cl3  1  0.691141  0.666860  0.439224  1
  Cl  Cl4  1  0.975720  0.308859  0.439224  1
  Cl  Cl5  1  0.333140  0.024280  0.439224  1
  Cl  Cl6  1  0.690274  0.023807  0.560725  1
  Cl  Cl7  1  0.976193  0.666466  0.560725  1
  Cl  Cl8  1  0.333534  0.309726  0.560725  1
