# generated using pymatgen
data_HfSiTe
_symmetry_space_group_name_H-M   'P 1'
_cell_length_a   3.67212193
_cell_length_b   3.67212193
_cell_length_c   26.98638000
_cell_angle_alpha   90.00000000
_cell_angle_beta   90.00000000
_cell_angle_gamma   90.00000000
_symmetry_Int_Tables_number   1
_chemical_formula_structural   HfSiTe
_chemical_formula_sum   'Hf2 Si2 Te2'
_cell_volume   363.89728705
_cell_formula_units_Z   2
loop_
 _symmetry_equiv_pos_site_id
 _symmetry_equiv_pos_as_xyz
  1  'x, y, z'
loop_
 _atom_site_type_symbol
 _atom_site_label
 _atom_site_symmetry_multiplicity
 _atom_site_fract_x
 _atom_site_fract_y
 _atom_site_fract_z
 _atom_site_occupancy
  Hf  Hf1  1  0.500000  0.000000  0.577968  1
  Hf  Hf2  1  -0.000000  0.500000  0.422032  1
  Si  Si3  1  0.000000  0.000000  0.500000  1
  Si  Si4  1  0.500000  0.500000  0.500000  1
  Te  Te5  1  -0.000000  0.500000  0.629526  1
  Te  Te6  1  0.500000  0.000000  0.370474  1
