# generated using pymatgen
data_ErCoSi2
_symmetry_space_group_name_H-M   'P 1'
_cell_length_a   3.95305817
_cell_length_b   3.95330498
_cell_length_c   26.74025700
_cell_angle_alpha   90.00000000
_cell_angle_beta   90.00000000
_cell_angle_gamma   90.00000000
_symmetry_Int_Tables_number   1
_chemical_formula_structural   ErCoSi2
_chemical_formula_sum   'Er2 Co2 Si4'
_cell_volume   417.88723156
_cell_formula_units_Z   2
loop_
 _symmetry_equiv_pos_site_id
 _symmetry_equiv_pos_as_xyz
  1  'x, y, z'
loop_
 _atom_site_type_symbol
 _atom_site_label
 _atom_site_symmetry_multiplicity
 _atom_site_fract_x
 _atom_site_fract_y
 _atom_site_fract_z
 _atom_site_occupancy
  Er  Er1  1  0.500000  0.500000  0.591874  1
  Er  Er2  1  0.000000  -0.000000  0.408126  1
  Co  Co3  1  -0.000000  -0.000000  0.542144  1
  Co  Co4  1  0.500000  0.500000  0.457856  1
  Si  Si5  1  0.500000  -0.000000  0.500013  1
  Si  Si6  1  -0.000000  0.500000  0.499987  1
  Si  Si7  1  0.000000  0.000000  0.624478  1
  Si  Si8  1  0.500000  0.500000  0.375522  1
