# generated using pymatgen
data_Mn3VO8
_symmetry_space_group_name_H-M   'P 1'
_cell_length_a   5.83268222
_cell_length_b   5.86914507
_cell_length_c   21.93670400
_cell_angle_alpha   90.00000000
_cell_angle_beta   90.00000000
_cell_angle_gamma   60.26670989
_symmetry_Int_Tables_number   1
_chemical_formula_structural   Mn3VO8
_chemical_formula_sum   'Mn3 V1 O8'
_cell_volume   652.08782340
_cell_formula_units_Z   1
loop_
 _symmetry_equiv_pos_site_id
 _symmetry_equiv_pos_as_xyz
  1  'x, y, z'
loop_
 _atom_site_type_symbol
 _atom_site_label
 _atom_site_symmetry_multiplicity
 _atom_site_fract_x
 _atom_site_fract_y
 _atom_site_fract_z
 _atom_site_occupancy
  Mn  Mn1  1  0.500000  0.000000  0.500000  1
  Mn  Mn2  1  0.500000  0.500000  0.500000  1
  Mn  Mn3  1  -0.000000  0.500000  0.500000  1
  V  V4  1  -0.000000  0.000000  0.500000  1
  O  O5  1  0.334206  0.331224  0.543607  1
  O  O6  1  0.830977  0.337602  0.543409  1
  O  O7  1  0.833566  0.831030  0.544112  1
  O  O8  1  0.665794  0.668776  0.456393  1
  O  O9  1  0.335209  0.830847  0.543905  1
  O  O10  1  0.169023  0.662398  0.456591  1
  O  O11  1  0.166434  0.168970  0.455888  1
  O  O12  1  0.664791  0.169153  0.456095  1
