# generated using pymatgen
data_LaMgI5
_symmetry_space_group_name_H-M   'P 1'
_cell_length_a   4.31538405
_cell_length_b   17.34227871
_cell_length_c   25.09684843
_cell_angle_alpha   90.00000000
_cell_angle_beta   90.00000000
_cell_angle_gamma   90.00000000
_symmetry_Int_Tables_number   1
_chemical_formula_structural   LaMgI5
_chemical_formula_sum   'La2 Mg2 I10'
_cell_volume   1878.21282362
_cell_formula_units_Z   2
loop_
 _symmetry_equiv_pos_site_id
 _symmetry_equiv_pos_as_xyz
  1  'x, y, z'
loop_
 _atom_site_type_symbol
 _atom_site_label
 _atom_site_symmetry_multiplicity
 _atom_site_fract_x
 _atom_site_fract_y
 _atom_site_fract_z
 _atom_site_occupancy
  La  La1  1  0.500000  0.250000  0.509701  1
  La  La2  1  0.500000  0.750000  0.490299  1
  Mg  Mg3  1  -0.000000  0.500000  0.500000  1
  Mg  Mg4  1  -0.000000  0.000000  0.500000  1
  I  I5  1  -0.000000  0.356279  0.439723  1
  I  I6  1  0.000000  0.143721  0.439723  1
  I  I7  1  0.500000  0.434192  0.565249  1
  I  I8  1  -0.000000  0.750000  0.398987  1
  I  I9  1  0.500000  0.065808  0.565249  1
  I  I10  1  0.500000  0.934192  0.434751  1
  I  I11  1  0.500000  0.565808  0.434751  1
  I  I12  1  0.000000  0.250000  0.601013  1
  I  I13  1  0.000000  0.856279  0.560277  1
  I  I14  1  -0.000000  0.643721  0.560277  1
