# generated using pymatgen
data_TbHO2
_symmetry_space_group_name_H-M   'P 1'
_cell_length_a   3.60679822
_cell_length_b   4.26165683
_cell_length_c   27.82017734
_cell_angle_alpha   90.00000000
_cell_angle_beta   90.00714464
_cell_angle_gamma   90.00000000
_symmetry_Int_Tables_number   1
_chemical_formula_structural   TbHO2
_chemical_formula_sum   'Tb2 H2 O4'
_cell_volume   427.62216926
_cell_formula_units_Z   2
loop_
 _symmetry_equiv_pos_site_id
 _symmetry_equiv_pos_as_xyz
  1  'x, y, z'
loop_
 _atom_site_type_symbol
 _atom_site_label
 _atom_site_symmetry_multiplicity
 _atom_site_fract_x
 _atom_site_fract_y
 _atom_site_fract_z
 _atom_site_occupancy
  Tb  Tb1  1  0.749972  0.750000  0.460565  1
  Tb  Tb2  1  0.250028  0.250000  0.539435  1
  H  H3  1  0.249811  0.750000  0.372957  1
  H  H4  1  0.750189  0.250000  0.627043  1
  O  O5  1  0.250015  0.750000  0.512705  1
  O  O6  1  0.749985  0.250000  0.487295  1
  O  O7  1  0.249929  0.750000  0.407862  1
  O  O8  1  0.750071  0.250000  0.592138  1
