# generated using pymatgen
data_CaMg
_symmetry_space_group_name_H-M   'P 1'
_cell_length_a   3.64896073
_cell_length_b   3.64896040
_cell_length_c   28.78413700
_cell_angle_alpha   90.00000000
_cell_angle_beta   90.00000000
_cell_angle_gamma   120.00000313
_symmetry_Int_Tables_number   1
_chemical_formula_structural   CaMg
_chemical_formula_sum   'Ca2 Mg2'
_cell_volume   331.91140084
_cell_formula_units_Z   2
loop_
 _symmetry_equiv_pos_site_id
 _symmetry_equiv_pos_as_xyz
  1  'x, y, z'
loop_
 _atom_site_type_symbol
 _atom_site_label
 _atom_site_symmetry_multiplicity
 _atom_site_fract_x
 _atom_site_fract_y
 _atom_site_fract_z
 _atom_site_occupancy
  Ca  Ca1  1  0.666667  0.333333  0.443107  1
  Ca  Ca2  1  0.333333  0.666667  0.556893  1
  Mg  Mg3  1  0.333333  0.666667  0.349995  1
  Mg  Mg4  1  0.666667  0.333333  0.650005  1
