# generated using pymatgen
data_LiCoPO4
_symmetry_space_group_name_H-M   'P 1'
_cell_length_a   5.15545386
_cell_length_b   5.15545454
_cell_length_c   26.37951900
_cell_angle_alpha   90.00000000
_cell_angle_beta   90.00000000
_cell_angle_gamma   59.99999771
_symmetry_Int_Tables_number   1
_chemical_formula_structural   LiCoPO4
_chemical_formula_sum   'Li2 Co2 P2 O8'
_cell_volume   607.19943738
_cell_formula_units_Z   2
loop_
 _symmetry_equiv_pos_site_id
 _symmetry_equiv_pos_as_xyz
  1  'x, y, z'
loop_
 _atom_site_type_symbol
 _atom_site_label
 _atom_site_symmetry_multiplicity
 _atom_site_fract_x
 _atom_site_fract_y
 _atom_site_fract_z
 _atom_site_occupancy
  Li  Li1  1  0.666667  0.666667  0.394578  1
  Li  Li2  1  0.666667  0.666667  0.605505  1
  Co  Co3  1  -0.000000  0.000000  0.559436  1
  Co  Co4  1  0.333333  0.333333  0.440539  1
  P  P5  1  -0.000000  0.000000  0.429408  1
  P  P6  1  0.333333  0.333333  0.570516  1
  O  O7  1  0.711103  0.008786  0.409252  1
  O  O8  1  0.053161  0.622234  0.590739  1
  O  O9  1  0.622234  0.324606  0.590739  1
  O  O10  1  0.333333  0.333333  0.512942  1
  O  O11  1  0.008786  0.280110  0.409252  1
  O  O12  1  0.280110  0.711103  0.409252  1
  O  O13  1  0.324606  0.053161  0.590739  1
  O  O14  1  -0.000000  0.000000  0.487100  1
