# generated using pymatgen
data_SmIO
_symmetry_space_group_name_H-M   'P 1'
_cell_length_a   4.01261277
_cell_length_b   4.01261324
_cell_length_c   27.32518100
_cell_angle_alpha   90.00000000
_cell_angle_beta   90.00000000
_cell_angle_gamma   59.99999570
_symmetry_Int_Tables_number   1
_chemical_formula_structural   SmIO
_chemical_formula_sum   'Sm2 I2 O2'
_cell_volume   381.02038621
_cell_formula_units_Z   2
loop_
 _symmetry_equiv_pos_site_id
 _symmetry_equiv_pos_as_xyz
  1  'x, y, z'
loop_
 _atom_site_type_symbol
 _atom_site_label
 _atom_site_symmetry_multiplicity
 _atom_site_fract_x
 _atom_site_fract_y
 _atom_site_fract_z
 _atom_site_occupancy
  Sm  Sm1  1  0.333333  0.333333  0.553184  1
  Sm  Sm2  1  0.666667  0.666667  0.446816  1
  I  I3  1  -0.000000  0.000000  0.633942  1
  I  I4  1  -0.000000  0.000000  0.366058  1
  O  O5  1  0.333333  0.333333  0.467771  1
  O  O6  1  0.666667  0.666667  0.532229  1
