# generated using pymatgen
data_SrMnSn
_symmetry_space_group_name_H-M   'P 1'
_cell_length_a   4.56186577
_cell_length_b   4.56186577
_cell_length_c   25.13686156
_cell_angle_alpha   90.00000000
_cell_angle_beta   90.00000000
_cell_angle_gamma   90.00000000
_symmetry_Int_Tables_number   1
_chemical_formula_structural   SrMnSn
_chemical_formula_sum   'Sr2 Mn2 Sn2'
_cell_volume   523.11365641
_cell_formula_units_Z   2
loop_
 _symmetry_equiv_pos_site_id
 _symmetry_equiv_pos_as_xyz
  1  'x, y, z'
loop_
 _atom_site_type_symbol
 _atom_site_label
 _atom_site_symmetry_multiplicity
 _atom_site_fract_x
 _atom_site_fract_y
 _atom_site_fract_z
 _atom_site_occupancy
  Sr  Sr1  1  -0.000000  0.500000  0.399661  1
  Sr  Sr2  1  0.500000  -0.000000  0.600339  1
  Mn  Mn3  1  0.500000  0.500000  0.500000  1
  Mn  Mn4  1  -0.000000  -0.000000  0.500000  1
  Sn  Sn5  1  0.000000  0.500000  0.562453  1
  Sn  Sn6  1  0.500000  0.000000  0.437547  1
